# Packages (lines beginning "#" are comments)
 &PACKAGES
 useMNC=.TRUE.,
 useDiagnostics=.FALSE.,
 useOBCS=.TRUE.,
 &
